A-803467.cdx
csChFnd80/01311313462D

 25 27  0  0  0  0  0  0  0  0999 V2000
    6.1287    2.2528    0.0000 O   0  0  0  0  0  0  0  0  0  0  0  0
    7.0655    1.2124    0.0000 C   0  0  0  0  0  0  0  0  0  0  0  0
    6.3655    0.0000    0.0000 C   0  0  0  0  0  0  0  0  0  0  0  0
    4.9961    0.2911    0.0000 C   0  0  0  0  0  0  0  0  0  0  0  0
    4.8497    1.6834    0.0000 C   0  0  0  0  0  0  0  0  0  0  0  0
    8.4578    1.3588    0.0000 C   0  0  0  0  0  0  0  0  0  0  0  0
    9.2807    0.2262    0.0000 O   0  0  0  0  0  0  0  0  0  0  0  0
    8.9595    2.6658    0.0000 N   0  0  0  0  0  0  0  0  0  0  0  0
   10.3423    2.8848    0.0000 C   0  0  0  0  0  0  0  0  0  0  0  0
   10.8440    4.1918    0.0000 C   0  0  0  0  0  0  0  0  0  0  0  0
   12.2268    4.4108    0.0000 C   0  0  0  0  0  0  0  0  0  0  0  0
   13.1078    3.3228    0.0000 C   0  0  0  0  0  0  0  0  0  0  0  0
   12.6061    2.0158    0.0000 C   0  0  0  0  0  0  0  0  0  0  0  0
   11.2233    1.7968    0.0000 C   0  0  0  0  0  0  0  0  0  0  0  0
   13.4872    0.9278    0.0000 O   0  0  0  0  0  0  0  0  0  0  0  0
   14.8699    1.1468    0.0000 C   0  0  0  0  0  0  0  0  0  0  0  0
   12.7285    5.7178    0.0000 O   0  0  0  0  0  0  0  0  0  0  0  0
   14.1113    5.9368    0.0000 C   0  0  0  0  0  0  0  0  0  0  0  0
    3.6373    2.3834    0.0000 C   0  0  0  0  0  0  0  0  0  0  0  0
    2.4249    1.6834    0.0000 C   0  0  0  0  0  0  0  0  0  0  0  0
    1.2124    2.3834    0.0000 C   0  0  0  0  0  0  0  0  0  0  0  0
    1.2124    3.7834    0.0000 C   0  0  0  0  0  0  0  0  0  0  0  0
    2.4249    4.4834    0.0000 C   0  0  0  0  0  0  0  0  0  0  0  0
    3.6373    3.7834    0.0000 C   0  0  0  0  0  0  0  0  0  0  0  0
    0.0000    4.4834    0.0000 Cl  0  0  0  0  0  0  0  0  0  0  0  0
  1  2  1  0  0  0  0
  2  3  2  0  0  0  0
  3  4  1  0  0  0  0
  4  5  2  0  0  0  0
  1  5  1  0  0  0  0
  6  7  2  0  0  0  0
  6  8  1  0  0  0  0
  2  6  1  0  0  0  0
  9 10  1  0  0  0  0
 10 11  2  0  0  0  0
 11 12  1  0  0  0  0
 12 13  2  0  0  0  0
 13 14  1  0  0  0  0
  9 14  2  0  0  0  0
 15 16  1  0  0  0  0
 13 15  1  0  0  0  0
 17 18  1  0  0  0  0
 11 17  1  0  0  0  0
  8  9  1  0  0  0  0
 19 20  1  0  0  0  0
 20 21  2  0  0  0  0
 21 22  1  0  0  0  0
 22 23  2  0  0  0  0
 23 24  1  0  0  0  0
 19 24  2  0  0  0  0
 22 25  1  0  0  0  0
  5 19  1  0  0  0  0
M  END
>  <Mol_ID> (1)
1221

>  <Formula> (1)
C19H16ClNO4

>  <MolWeight> (1)
357.78764

>  <Item Name> (1)
A-803467

>  <Catalog Number> (1)
S2785 

>  <Synonyms> (1)
N/A 

>  <Target> (1)
Sodium Channel 

>  <URL> (1)
http://www.selleckchem.com/products/a-803467.html

>  <CAS Number> (1)
944261-79-4

$$$$
